*SPEF "ieee 1481-1999"
*DESIGN "ALU"
*DATE "09:41:54 Tuesday March 31, 2026"
*VENDOR "The OpenROAD Project"
*PROGRAM "OpenROAD"
*VERSION "26Q1-2754-gce7ee82f49"
*DESIGN_FLOW "NAME_SCOPE LOCAL" "PIN_CAP NONE"
*DIVIDER /
*DELIMITER :
*BUS_DELIMITER []
*T_UNIT 1 NS
*C_UNIT 1 PF
*R_UNIT 1 OHM
*L_UNIT 1 HENRY

*NAME_MAP
*2 net_3
*3 _002_
*4 _003_
*5 _004_
*6 _005_
*7 _006_
*8 _007_
*9 _008_
*10 _009_
*11 _010_
*12 _011_
*13 _012_
*14 _013_
*15 _014_
*16 _015_
*17 _016_
*18 _017_
*19 _018_
*20 _019_
*21 _020_
*22 _021_
*23 _022_
*24 _023_
*25 _024_
*26 _025_
*27 _026_
*28 _027_
*29 _028_
*30 _029_
*31 _030_
*32 _031_
*33 _032_
*34 _033_
*35 _034_
*36 _035_
*37 _036_
*38 _037_
*39 _038_
*40 _039_
*41 _040_
*42 _041_
*43 _042_
*44 _043_
*45 _044_
*46 _045_
*47 _046_
*48 _047_
*49 _048_
*50 _049_
*51 _050_
*52 _051_
*53 _052_
*54 _053_
*55 _054_
*56 _055_
*57 _056_
*58 _057_
*59 _058_
*60 _059_
*61 _060_
*62 _061_
*63 _062_
*64 _063_
*65 _064_
*66 _065_
*67 _066_
*68 _067_
*69 _068_
*70 _069_
*71 _070_
*72 _071_
*73 _072_
*74 _073_
*75 _074_
*76 _075_
*77 _076_
*78 _077_
*79 _078_
*80 _079_
*81 _080_
*82 _081_
*83 _082_
*84 _083_
*85 _084_
*86 _085_
*87 _086_
*88 _087_
*89 _088_
*90 _089_
*91 _090_
*92 _091_
*93 _092_
*94 _093_
*95 _094_
*96 _095_
*97 _096_
*98 _097_
*99 _098_
*100 _099_
*101 _100_
*102 _101_
*103 _102_
*104 _103_
*105 _104_
*106 _105_
*107 _106_
*108 _107_
*109 _108_
*110 _109_
*111 _110_
*112 _111_
*113 _112_
*114 _113_
*115 _114_
*116 _115_
*117 _116_
*118 _117_
*119 _118_
*120 _119_
*121 _120_
*122 _121_
*123 _122_
*124 _123_
*125 _124_
*126 _125_
*127 _126_
*128 _127_
*129 _128_
*130 _129_
*131 _130_
*132 _131_
*133 _132_
*134 _133_
*135 _134_
*136 _135_
*137 _136_
*138 _137_
*139 _138_
*140 _139_
*141 _140_
*142 _141_
*143 _142_
*144 _143_
*145 _144_
*146 _145_
*147 _146_
*148 _147_
*149 _148_
*150 _149_
*151 _150_
*152 _151_
*153 _152_
*154 _153_
*155 _154_
*156 _155_
*157 _156_
*158 _157_
*159 _158_
*160 _159_
*161 _160_
*162 _161_
*163 _162_
*164 _163_
*165 _164_
*166 _165_
*167 _166_
*168 _167_
*169 _168_
*170 _169_
*171 _170_
*172 _171_
*173 _172_
*174 _173_
*175 _174_
*176 _175_
*177 _176_
*178 _177_
*179 _178_
*180 _179_
*181 _180_
*182 _181_
*183 _182_
*184 _183_
*185 _184_
*186 _185_
*187 _186_
*188 _187_
*189 _188_
*190 _189_
*191 _190_
*192 _191_
*193 _192_
*194 _193_
*195 _194_
*196 _195_
*197 _196_
*198 _197_
*199 _198_
*200 _199_
*201 _200_
*202 _201_
*203 _202_
*204 _203_
*205 _204_
*206 _205_
*207 _206_
*208 _207_
*209 _208_
*210 _209_
*211 _210_
*212 _211_
*213 _212_
*214 _213_
*215 _214_
*216 _215_
*217 _216_
*218 _217_
*219 _218_
*220 _219_
*221 _220_
*222 _221_
*223 _222_
*224 _223_
*225 _224_
*226 _225_
*227 _226_
*228 _227_
*229 _228_
*230 _229_
*231 _230_
*232 _231_
*233 _232_
*234 _233_
*235 _234_
*236 _235_
*237 _236_
*238 _237_
*239 _238_
*240 _239_
*241 _240_
*242 _241_
*243 _242_
*244 _243_
*245 _244_
*246 _245_
*247 _246_
*248 _247_
*249 _248_
*250 _249_
*251 _250_
*252 _251_
*253 _252_
*254 _253_
*255 _254_
*256 _255_
*257 _256_
*258 _257_
*259 _258_
*260 _259_
*261 _260_
*262 _261_
*263 _262_
*264 _263_
*265 _264_
*266 _T_11\[0\]
*267 _T_11\[10\]
*268 _T_11\[11\]
*269 _T_11\[12\]
*270 _T_11\[13\]
*271 _T_11\[14\]
*272 _T_11\[15\]
*273 _T_11\[16\]
*274 _T_11\[17\]
*275 _T_11\[18\]
*276 _T_11\[19\]
*277 _T_11\[1\]
*278 _T_11\[20\]
*279 _T_11\[21\]
*280 _T_11\[22\]
*281 _T_11\[23\]
*282 _T_11\[24\]
*283 _T_11\[25\]
*284 _T_11\[26\]
*285 _T_11\[27\]
*286 _T_11\[28\]
*287 _T_11\[29\]
*288 _T_11\[2\]
*289 _T_11\[30\]
*290 _T_11\[31\]
*291 _T_11\[3\]
*292 _T_11\[4\]
*293 _T_11\[5\]
*294 _T_11\[6\]
*295 _T_11\[7\]
*296 _T_11\[8\]
*297 _T_11\[9\]
*298 _T_8\[0\]
*299 _T_8\[10\]
*300 _T_8\[11\]
*301 _T_8\[12\]
*302 _T_8\[13\]
*303 _T_8\[14\]
*304 _T_8\[15\]
*305 _T_8\[16\]
*306 _T_8\[17\]
*307 _T_8\[18\]
*308 _T_8\[19\]
*309 _T_8\[1\]
*310 _T_8\[20\]
*311 _T_8\[21\]
*312 _T_8\[22\]
*313 _T_8\[23\]
*314 _T_8\[24\]
*315 _T_8\[25\]
*316 _T_8\[26\]
*317 _T_8\[27\]
*318 _T_8\[28\]
*319 _T_8\[29\]
*320 _T_8\[2\]
*321 _T_8\[30\]
*322 _T_8\[31\]
*323 _T_8\[3\]
*324 _T_8\[4\]
*325 _T_8\[5\]
*326 _T_8\[6\]
*327 _T_8\[7\]
*328 _T_8\[8\]
*329 _T_8\[9\]
*330 clock
*331 net5
*332 net6
*333 net7
*334 net8
*335 net9
*336 net10
*337 net11
*338 net12
*339 net13
*340 net14
*341 net15
*342 net16
*343 net17
*344 net18
*345 net19
*346 net20
*347 net21
*348 net22
*349 net23
*350 net24
*351 net25
*352 net26
*353 net27
*354 net28
*355 net29
*356 net30
*357 net31
*358 net32
*359 net33
*360 net34
*361 net35
*362 net36
*363 net37
*364 net38
*365 net39
*366 net40
*367 net41
*368 net42
*369 net43
*370 net44
*371 net45
*372 net46
*373 net47
*374 net48
*375 net49
*376 net50
*377 net51
*378 net52
*379 net53
*380 net54
*381 net55
*382 net56
*383 net57
*384 net58
*385 net59
*386 net60
*387 net61
*388 net62
*389 net63
*390 net64
*391 net65
*392 net66
*393 net67
*394 net68
*395 net73
*396 net69
*397 net70
*398 net71
*399 net72
*400 net74
*401 net75
*402 net76
*403 net77
*404 net78
*405 net79
*406 net80
*407 net81
*408 net82
*409 net83
*410 net84
*411 net85
*412 net86
*413 net87
*414 net88
*415 net89
*416 net90
*417 net91
*418 net92
*419 net93
*420 net94
*421 net95
*422 net96
*423 net97
*424 io_a[0]
*425 net98
*426 net99
*427 net100
*428 net101
*429 net102
*430 net103
*431 net104
*432 net105
*433 reset
*434 _265_/_000_
*435 _265_/_001_
*436 _265_/_002_
*437 _265_/_003_
*438 _265_/_004_
*439 _265_/_005_
*440 _265_/_006_
*441 _265_/_007_
*442 _265_/_008_
*443 _265_/_009_
*444 _265_/_010_
*445 _265_/_011_
*446 _265_/_012_
*447 _265_/_013_
*448 _265_/_014_
*449 _265_/_015_
*450 _265_/_016_
*451 _265_/_017_
*452 _265_/_018_
*453 _265_/_019_
*454 _265_/_020_
*455 _265_/_021_
*456 _265_/_022_
*457 _265_/_023_
*458 _265_/_024_
*459 _265_/_025_
*460 _265_/_026_
*461 _265_/_027_
*462 _265_/_028_
*463 _265_/_029_
*464 _265_/_030_
*465 _265_/_031_
*466 _265_/_032_
*467 _265_/_033_
*468 _265_/_034_
*469 _265_/_035_
*470 _265_/_036_
*471 _265_/_037_
*472 _265_/_038_
*473 _265_/_039_
*474 _265_/_040_
*475 _265_/_041_
*476 _265_/_042_
*477 _265_/_043_
*478 _265_/_044_
*479 _265_/_045_
*480 _265_/_046_
*481 _265_/_047_
*482 _265_/_048_
*483 _265_/_049_
*484 _265_/_050_
*485 _265_/_051_
*486 _265_/_052_
*487 _265_/_053_
*488 _265_/_054_
*489 _265_/_055_
*490 _265_/_056_
*491 _265_/_057_
*492 _265_/_058_
*493 _265_/_059_
*494 _265_/_060_
*495 _265_/_061_
*496 _265_/_062_
*497 _265_/_063_
*498 _265_/_064_
*499 _265_/_065_
*500 _265_/_066_
*501 _265_/_067_
*502 _265_/_068_
*503 _265_/_069_
*504 _265_/_070_
*505 _265_/_071_
*506 _265_/_072_
*507 _265_/_073_
*508 _265_/_074_
*509 _265_/_075_
*510 _265_/_076_
*511 _265_/_077_
*512 _265_/_078_
*513 _265_/_079_
*514 _265_/_080_
*515 _265_/_081_
*516 _265_/_082_
*517 _265_/_083_
*518 _265_/_084_
*519 _265_/_085_
*520 _265_/_086_
*521 _265_/_087_
*522 _265_/_088_
*523 _265_/_089_
*524 _265_/_090_
*525 _265_/_091_
*526 _265_/_092_
*527 _265_/_093_
*528 _265_/_094_
*529 _265_/_095_
*530 _265_/_096_
*531 _265_/_097_
*532 _265_/_098_
*533 _265_/_099_
*534 _265_/_100_
*535 _265_/_101_
*536 _265_/_102_
*537 _265_/_103_
*538 _265_/_104_
*539 _265_/_105_
*540 _265_/_106_
*541 _265_/_107_
*542 _265_/_108_
*543 _265_/_109_
*544 _265_/_110_
*545 _265_/_111_
*546 _265_/_112_
*547 _265_/_113_
*548 _265_/_114_
*549 _265_/_115_
*550 _265_/_116_
*551 _265_/_117_
*552 _265_/_118_
*553 _265_/_119_
*554 _265_/_120_
*555 _265_/_121_
*556 _265_/_122_
*557 _265_/_123_
*558 _265_/_124_
*559 _265_/_125_
*560 _265_/_126_
*561 _265_/_127_
*562 _265_/_128_
*563 _265_/_129_
*564 _265_/_130_
*565 _265_/_131_
*566 _265_/_132_
*567 _265_/_133_
*568 _265_/_134_
*569 _265_/_135_
*570 _265_/_136_
*571 _265_/_137_
*572 _265_/_138_
*573 _265_/_139_
*574 _265_/_140_
*575 _265_/_141_
*576 _265_/_142_
*577 _265_/_143_
*578 _265_/_144_
*579 _265_/_145_
*580 _265_/_146_
*581 _265_/_147_
*582 _265_/_148_
*583 _265_/_149_
*584 _265_/_150_
*585 _265_/_151_
*586 _265_/_152_
*587 _265_/_153_
*588 _265_/_154_
*589 _265_/_155_
*590 _265_/_156_
*591 _265_/_157_
*592 _265_/_158_
*593 _265_/_159_
*594 _265_/_160_
*595 _265_/_161_
*596 _265_/_162_
*597 _265_/_163_
*598 _265_/_164_
*599 _265_/_165_
*600 _265_/_166_
*601 _265_/_167_
*602 _265_/_168_
*603 _265_/_169_
*604 _265_/_170_
*605 _265_/_171_
*606 _265_/_172_
*607 _265_/_173_
*608 _265_/_174_
*609 _265_/_175_
*610 _265_/_176_
*611 _265_/_177_
*612 _265_/_178_
*613 _265_/_179_
*614 _265_/_180_
*615 _265_/_181_
*616 _265_/_182_
*617 _265_/_183_
*618 _265_/_184_
*619 _265_/_185_
*620 _265_/_186_
*621 _265_/_187_
*622 _265_/_188_
*623 _265_/_189_
*624 _265_/_190_
*625 _265_/_191_
*626 _265_/_192_
*627 _265_/_193_
*628 _265_/_194_
*629 _265_/_195_
*630 _265_/_196_
*631 _265_/_197_
*632 _265_/_198_
*633 _265_/_199_
*634 _265_/_200_
*635 _265_/_201_
*636 _265_/_202_
*637 _265_/_203_
*638 _265_/_204_
*639 _265_/_205_
*640 _265_/_206_
*641 _265_/_207_
*642 _265_/_208_
*643 _265_/_209_
*644 _265_/_210_
*645 _265_/_211_
*646 _265_/_212_
*647 _265_/_213_
*648 _265_/_214_
*649 _265_/_215_
*650 _265_/_216_
*651 _265_/_217_
*652 _265_/_218_
*653 _T_8\\ALU_32_0_32_0_32_unused_CO_X_HAN_CARLSON/_000_
*654 _T_8\\ALU_32_0_32_0_32_unused_CO_X_HAN_CARLSON/_001_
*655 _T_8\\ALU_32_0_32_0_32_unused_CO_X_HAN_CARLSON/_002_
*656 _T_8\\ALU_32_0_32_0_32_unused_CO_X_HAN_CARLSON/_003_
*657 _T_8\\ALU_32_0_32_0_32_unused_CO_X_HAN_CARLSON/_004_
*658 _T_8\\ALU_32_0_32_0_32_unused_CO_X_HAN_CARLSON/_005_
*659 _T_8\\ALU_32_0_32_0_32_unused_CO_X_HAN_CARLSON/_006_
*660 _T_8\\ALU_32_0_32_0_32_unused_CO_X_HAN_CARLSON/_007_
*661 _T_8\\ALU_32_0_32_0_32_unused_CO_X_HAN_CARLSON/_008_
*662 _T_8\\ALU_32_0_32_0_32_unused_CO_X_HAN_CARLSON/_009_
*663 _T_8\\ALU_32_0_32_0_32_unused_CO_X_HAN_CARLSON/_010_
*664 _T_8\\ALU_32_0_32_0_32_unused_CO_X_HAN_CARLSON/_011_
*665 _T_8\\ALU_32_0_32_0_32_unused_CO_X_HAN_CARLSON/_012_
*666 _T_8\\ALU_32_0_32_0_32_unused_CO_X_HAN_CARLSON/_013_
*667 _T_8\\ALU_32_0_32_0_32_unused_CO_X_HAN_CARLSON/_014_
*668 _T_8\\ALU_32_0_32_0_32_unused_CO_X_HAN_CARLSON/_015_
*669 _T_8\\ALU_32_0_32_0_32_unused_CO_X_HAN_CARLSON/_016_
*670 _T_8\\ALU_32_0_32_0_32_unused_CO_X_HAN_CARLSON/_017_
*671 _T_8\\ALU_32_0_32_0_32_unused_CO_X_HAN_CARLSON/_018_
*672 _T_8\\ALU_32_0_32_0_32_unused_CO_X_HAN_CARLSON/_019_
*673 _T_8\\ALU_32_0_32_0_32_unused_CO_X_HAN_CARLSON/_020_
*674 _T_8\\ALU_32_0_32_0_32_unused_CO_X_HAN_CARLSON/_021_
*675 _T_8\\ALU_32_0_32_0_32_unused_CO_X_HAN_CARLSON/_022_
*676 _T_8\\ALU_32_0_32_0_32_unused_CO_X_HAN_CARLSON/_023_
*677 _T_8\\ALU_32_0_32_0_32_unused_CO_X_HAN_CARLSON/_024_
*678 _T_8\\ALU_32_0_32_0_32_unused_CO_X_HAN_CARLSON/_025_
*679 _T_8\\ALU_32_0_32_0_32_unused_CO_X_HAN_CARLSON/_026_
*680 _T_8\\ALU_32_0_32_0_32_unused_CO_X_HAN_CARLSON/_027_
*681 _T_8\\ALU_32_0_32_0_32_unused_CO_X_HAN_CARLSON/_028_
*682 _T_8\\ALU_32_0_32_0_32_unused_CO_X_HAN_CARLSON/_029_
*683 _T_8\\ALU_32_0_32_0_32_unused_CO_X_HAN_CARLSON/_030_
*684 _T_8\\ALU_32_0_32_0_32_unused_CO_X_HAN_CARLSON/_031_
*685 _T_8\\ALU_32_0_32_0_32_unused_CO_X_HAN_CARLSON/_032_
*686 _T_8\\ALU_32_0_32_0_32_unused_CO_X_HAN_CARLSON/_033_
*687 _T_8\\ALU_32_0_32_0_32_unused_CO_X_HAN_CARLSON/_034_
*688 _T_8\\ALU_32_0_32_0_32_unused_CO_X_HAN_CARLSON/_035_
*689 _T_8\\ALU_32_0_32_0_32_unused_CO_X_HAN_CARLSON/_036_
*690 _T_8\\ALU_32_0_32_0_32_unused_CO_X_HAN_CARLSON/_037_
*691 _T_8\\ALU_32_0_32_0_32_unused_CO_X_HAN_CARLSON/_038_
*692 _T_8\\ALU_32_0_32_0_32_unused_CO_X_HAN_CARLSON/_039_
*693 _T_8\\ALU_32_0_32_0_32_unused_CO_X_HAN_CARLSON/_040_
*694 _T_8\\ALU_32_0_32_0_32_unused_CO_X_HAN_CARLSON/_041_
*695 _T_8\\ALU_32_0_32_0_32_unused_CO_X_HAN_CARLSON/_042_
*696 _T_8\\ALU_32_0_32_0_32_unused_CO_X_HAN_CARLSON/_043_
*697 _T_8\\ALU_32_0_32_0_32_unused_CO_X_HAN_CARLSON/_044_
*698 _T_8\\ALU_32_0_32_0_32_unused_CO_X_HAN_CARLSON/_045_
*699 _T_8\\ALU_32_0_32_0_32_unused_CO_X_HAN_CARLSON/_046_
*700 _T_8\\ALU_32_0_32_0_32_unused_CO_X_HAN_CARLSON/_047_
*701 _T_8\\ALU_32_0_32_0_32_unused_CO_X_HAN_CARLSON/_048_
*702 _T_8\\ALU_32_0_32_0_32_unused_CO_X_HAN_CARLSON/_049_
*703 _T_8\\ALU_32_0_32_0_32_unused_CO_X_HAN_CARLSON/_050_
*704 _T_8\\ALU_32_0_32_0_32_unused_CO_X_HAN_CARLSON/_051_
*705 _T_8\\ALU_32_0_32_0_32_unused_CO_X_HAN_CARLSON/_052_
*706 _T_8\\ALU_32_0_32_0_32_unused_CO_X_HAN_CARLSON/_053_
*707 _T_8\\ALU_32_0_32_0_32_unused_CO_X_HAN_CARLSON/_054_
*708 _T_8\\ALU_32_0_32_0_32_unused_CO_X_HAN_CARLSON/_055_
*709 _T_8\\ALU_32_0_32_0_32_unused_CO_X_HAN_CARLSON/_056_
*710 _T_8\\ALU_32_0_32_0_32_unused_CO_X_HAN_CARLSON/_057_
*711 _T_8\\ALU_32_0_32_0_32_unused_CO_X_HAN_CARLSON/_058_
*712 _T_8\\ALU_32_0_32_0_32_unused_CO_X_HAN_CARLSON/_059_
*713 _T_8\\ALU_32_0_32_0_32_unused_CO_X_HAN_CARLSON/_060_
*714 _T_8\\ALU_32_0_32_0_32_unused_CO_X_HAN_CARLSON/_061_
*715 _T_8\\ALU_32_0_32_0_32_unused_CO_X_HAN_CARLSON/_062_
*716 _T_8\\ALU_32_0_32_0_32_unused_CO_X_HAN_CARLSON/_063_
*717 _T_8\\ALU_32_0_32_0_32_unused_CO_X_HAN_CARLSON/_064_
*718 _T_8\\ALU_32_0_32_0_32_unused_CO_X_HAN_CARLSON/_065_
*719 _T_8\\ALU_32_0_32_0_32_unused_CO_X_HAN_CARLSON/_066_
*720 _T_8\\ALU_32_0_32_0_32_unused_CO_X_HAN_CARLSON/_067_
*721 _T_8\\ALU_32_0_32_0_32_unused_CO_X_HAN_CARLSON/_068_
*722 _T_8\\ALU_32_0_32_0_32_unused_CO_X_HAN_CARLSON/_069_
*723 _T_8\\ALU_32_0_32_0_32_unused_CO_X_HAN_CARLSON/_070_
*724 _T_8\\ALU_32_0_32_0_32_unused_CO_X_HAN_CARLSON/_071_
*725 _T_8\\ALU_32_0_32_0_32_unused_CO_X_HAN_CARLSON/_072_
*726 _T_8\\ALU_32_0_32_0_32_unused_CO_X_HAN_CARLSON/_073_
*727 _T_8\\ALU_32_0_32_0_32_unused_CO_X_HAN_CARLSON/_074_
*728 _T_8\\ALU_32_0_32_0_32_unused_CO_X_HAN_CARLSON/_075_
*729 _T_8\\ALU_32_0_32_0_32_unused_CO_X_HAN_CARLSON/_076_
*730 _T_8\\ALU_32_0_32_0_32_unused_CO_X_HAN_CARLSON/_077_
*731 _T_8\\ALU_32_0_32_0_32_unused_CO_X_HAN_CARLSON/_078_
*732 _T_8\\ALU_32_0_32_0_32_unused_CO_X_HAN_CARLSON/_079_
*733 _T_8\\ALU_32_0_32_0_32_unused_CO_X_HAN_CARLSON/_080_
*734 _T_8\\ALU_32_0_32_0_32_unused_CO_X_HAN_CARLSON/_081_
*735 _T_8\\ALU_32_0_32_0_32_unused_CO_X_HAN_CARLSON/_082_
*736 _T_8\\ALU_32_0_32_0_32_unused_CO_X_HAN_CARLSON/_083_
*737 _T_8\\ALU_32_0_32_0_32_unused_CO_X_HAN_CARLSON/_084_
*738 _T_8\\ALU_32_0_32_0_32_unused_CO_X_HAN_CARLSON/_085_
*739 _T_8\\ALU_32_0_32_0_32_unused_CO_X_HAN_CARLSON/_086_
*740 _T_8\\ALU_32_0_32_0_32_unused_CO_X_HAN_CARLSON/_087_
*741 _T_8\\ALU_32_0_32_0_32_unused_CO_X_HAN_CARLSON/_088_
*742 _T_8\\ALU_32_0_32_0_32_unused_CO_X_HAN_CARLSON/_089_
*743 _T_8\\ALU_32_0_32_0_32_unused_CO_X_HAN_CARLSON/_090_
*744 _T_8\\ALU_32_0_32_0_32_unused_CO_X_HAN_CARLSON/_091_
*745 _T_8\\ALU_32_0_32_0_32_unused_CO_X_HAN_CARLSON/_092_
*746 _T_8\\ALU_32_0_32_0_32_unused_CO_X_HAN_CARLSON/_093_
*747 _T_8\\ALU_32_0_32_0_32_unused_CO_X_HAN_CARLSON/_094_
*748 _T_8\\ALU_32_0_32_0_32_unused_CO_X_HAN_CARLSON/_095_
*749 _T_8\\ALU_32_0_32_0_32_unused_CO_X_HAN_CARLSON/_096_
*750 _T_8\\ALU_32_0_32_0_32_unused_CO_X_HAN_CARLSON/_097_
*751 _T_8\\ALU_32_0_32_0_32_unused_CO_X_HAN_CARLSON/_098_
*752 _T_8\\ALU_32_0_32_0_32_unused_CO_X_HAN_CARLSON/_099_
*753 _T_8\\ALU_32_0_32_0_32_unused_CO_X_HAN_CARLSON/_100_
*754 _T_8\\ALU_32_0_32_0_32_unused_CO_X_HAN_CARLSON/_101_
*755 _T_8\\ALU_32_0_32_0_32_unused_CO_X_HAN_CARLSON/_102_
*756 _T_8\\ALU_32_0_32_0_32_unused_CO_X_HAN_CARLSON/_103_
*757 _T_8\\ALU_32_0_32_0_32_unused_CO_X_HAN_CARLSON/_104_
*758 _T_8\\ALU_32_0_32_0_32_unused_CO_X_HAN_CARLSON/_105_
*759 _T_8\\ALU_32_0_32_0_32_unused_CO_X_HAN_CARLSON/_106_
*760 _T_8\\ALU_32_0_32_0_32_unused_CO_X_HAN_CARLSON/_107_
*761 _T_8\\ALU_32_0_32_0_32_unused_CO_X_HAN_CARLSON/_108_
*762 _T_8\\ALU_32_0_32_0_32_unused_CO_X_HAN_CARLSON/_109_
*763 _T_8\\ALU_32_0_32_0_32_unused_CO_X_HAN_CARLSON/_110_
*764 _T_8\\ALU_32_0_32_0_32_unused_CO_X_HAN_CARLSON/_111_
*765 _T_8\\ALU_32_0_32_0_32_unused_CO_X_HAN_CARLSON/_112_
*766 _T_8\\ALU_32_0_32_0_32_unused_CO_X_HAN_CARLSON/_113_
*767 _T_8\\ALU_32_0_32_0_32_unused_CO_X_HAN_CARLSON/_114_
*768 _T_8\\ALU_32_0_32_0_32_unused_CO_X_HAN_CARLSON/_115_
*769 _T_8\\ALU_32_0_32_0_32_unused_CO_X_HAN_CARLSON/_116_
*770 _T_8\\ALU_32_0_32_0_32_unused_CO_X_HAN_CARLSON/_117_
*771 _T_8\\ALU_32_0_32_0_32_unused_CO_X_HAN_CARLSON/_118_
*772 _T_8\\ALU_32_0_32_0_32_unused_CO_X_HAN_CARLSON/_119_
*773 _T_8\\ALU_32_0_32_0_32_unused_CO_X_HAN_CARLSON/_120_
*774 _T_8\\ALU_32_0_32_0_32_unused_CO_X_HAN_CARLSON/_121_
*775 _T_8\\ALU_32_0_32_0_32_unused_CO_X_HAN_CARLSON/_122_
*776 _T_8\\ALU_32_0_32_0_32_unused_CO_X_HAN_CARLSON/_123_
*777 _T_8\\ALU_32_0_32_0_32_unused_CO_X_HAN_CARLSON/_124_
*778 _T_8\\ALU_32_0_32_0_32_unused_CO_X_HAN_CARLSON/_125_
*779 _T_8\\ALU_32_0_32_0_32_unused_CO_X_HAN_CARLSON/_126_
*780 _T_8\\ALU_32_0_32_0_32_unused_CO_X_HAN_CARLSON/_127_
*781 _T_8\\ALU_32_0_32_0_32_unused_CO_X_HAN_CARLSON/_128_
*782 _T_8\\ALU_32_0_32_0_32_unused_CO_X_HAN_CARLSON/_129_
*783 _T_8\\ALU_32_0_32_0_32_unused_CO_X_HAN_CARLSON/_130_
*784 _T_8\\ALU_32_0_32_0_32_unused_CO_X_HAN_CARLSON/_131_
*785 _T_8\\ALU_32_0_32_0_32_unused_CO_X_HAN_CARLSON/_132_
*786 _T_8\\ALU_32_0_32_0_32_unused_CO_X_HAN_CARLSON/_133_
*787 _T_8\\ALU_32_0_32_0_32_unused_CO_X_HAN_CARLSON/_134_
*788 _T_8\\ALU_32_0_32_0_32_unused_CO_X_HAN_CARLSON/_135_
*789 _T_8\\ALU_32_0_32_0_32_unused_CO_X_HAN_CARLSON/_136_
*790 _T_8\\ALU_32_0_32_0_32_unused_CO_X_HAN_CARLSON/_137_
*791 _T_8\\ALU_32_0_32_0_32_unused_CO_X_HAN_CARLSON/_138_
*792 _T_8\\ALU_32_0_32_0_32_unused_CO_X_HAN_CARLSON/_139_
*793 _T_8\\ALU_32_0_32_0_32_unused_CO_X_HAN_CARLSON/_140_
*794 _T_8\\ALU_32_0_32_0_32_unused_CO_X_HAN_CARLSON/_141_
*795 _T_8\\ALU_32_0_32_0_32_unused_CO_X_HAN_CARLSON/_142_
*796 _T_8\\ALU_32_0_32_0_32_unused_CO_X_HAN_CARLSON/_143_
*797 _T_8\\ALU_32_0_32_0_32_unused_CO_X_HAN_CARLSON/_144_
*798 _T_8\\ALU_32_0_32_0_32_unused_CO_X_HAN_CARLSON/_145_
*799 _T_8\\ALU_32_0_32_0_32_unused_CO_X_HAN_CARLSON/_146_
*800 _T_8\\ALU_32_0_32_0_32_unused_CO_X_HAN_CARLSON/_147_
*801 _T_8\\ALU_32_0_32_0_32_unused_CO_X_HAN_CARLSON/_148_
*802 _T_8\\ALU_32_0_32_0_32_unused_CO_X_HAN_CARLSON/_149_
*803 _T_8\\ALU_32_0_32_0_32_unused_CO_X_HAN_CARLSON/_150_
*804 _T_8\\ALU_32_0_32_0_32_unused_CO_X_HAN_CARLSON/_151_
*805 _T_8\\ALU_32_0_32_0_32_unused_CO_X_HAN_CARLSON/_152_
*806 _T_8\\ALU_32_0_32_0_32_unused_CO_X_HAN_CARLSON/_153_
*807 _T_8\\ALU_32_0_32_0_32_unused_CO_X_HAN_CARLSON/_154_
*808 _T_8\\ALU_32_0_32_0_32_unused_CO_X_HAN_CARLSON/_155_
*809 _T_8\\ALU_32_0_32_0_32_unused_CO_X_HAN_CARLSON/_156_
*810 _T_8\\ALU_32_0_32_0_32_unused_CO_X_HAN_CARLSON/_157_
*811 _T_8\\ALU_32_0_32_0_32_unused_CO_X_HAN_CARLSON/_158_
*812 _T_8\\ALU_32_0_32_0_32_unused_CO_X_HAN_CARLSON/_159_
*813 _T_8\\ALU_32_0_32_0_32_unused_CO_X_HAN_CARLSON/_160_
*814 _T_8\\ALU_32_0_32_0_32_unused_CO_X_HAN_CARLSON/_161_
*815 _T_8\\ALU_32_0_32_0_32_unused_CO_X_HAN_CARLSON/_162_
*816 _T_8\\ALU_32_0_32_0_32_unused_CO_X_HAN_CARLSON/_163_
*817 _T_8\\ALU_32_0_32_0_32_unused_CO_X_HAN_CARLSON/_164_
*818 _T_8\\ALU_32_0_32_0_32_unused_CO_X_HAN_CARLSON/_165_
*819 _T_8\\ALU_32_0_32_0_32_unused_CO_X_HAN_CARLSON/_166_
*820 _T_8\\ALU_32_0_32_0_32_unused_CO_X_HAN_CARLSON/_167_
*821 _T_8\\ALU_32_0_32_0_32_unused_CO_X_HAN_CARLSON/_168_
*822 _T_8\\ALU_32_0_32_0_32_unused_CO_X_HAN_CARLSON/_169_
*823 _T_8\\ALU_32_0_32_0_32_unused_CO_X_HAN_CARLSON/_170_
*824 _T_8\\ALU_32_0_32_0_32_unused_CO_X_HAN_CARLSON/_171_
*825 _T_8\\ALU_32_0_32_0_32_unused_CO_X_HAN_CARLSON/_172_
*826 _T_8\\ALU_32_0_32_0_32_unused_CO_X_HAN_CARLSON/_173_
*827 _T_8\\ALU_32_0_32_0_32_unused_CO_X_HAN_CARLSON/_174_
*828 _T_8\\ALU_32_0_32_0_32_unused_CO_X_HAN_CARLSON/_175_
*829 _T_8\\ALU_32_0_32_0_32_unused_CO_X_HAN_CARLSON/_176_
*830 _T_8\\ALU_32_0_32_0_32_unused_CO_X_HAN_CARLSON/_177_
*831 _T_8\\ALU_32_0_32_0_32_unused_CO_X_HAN_CARLSON/_178_
*832 _T_8\\ALU_32_0_32_0_32_unused_CO_X_HAN_CARLSON/_179_
*833 _T_8\\ALU_32_0_32_0_32_unused_CO_X_HAN_CARLSON/_180_
*834 _T_8\\ALU_32_0_32_0_32_unused_CO_X_HAN_CARLSON/_181_
*835 _T_8\\ALU_32_0_32_0_32_unused_CO_X_HAN_CARLSON/_182_
*836 _T_8\\ALU_32_0_32_0_32_unused_CO_X_HAN_CARLSON/_183_
*837 _T_8\\ALU_32_0_32_0_32_unused_CO_X_HAN_CARLSON/_184_
*838 _T_8\\ALU_32_0_32_0_32_unused_CO_X_HAN_CARLSON/_185_
*839 _T_8\\ALU_32_0_32_0_32_unused_CO_X_HAN_CARLSON/_186_
*840 _T_8\\ALU_32_0_32_0_32_unused_CO_X_HAN_CARLSON/_187_
*841 _T_8\\ALU_32_0_32_0_32_unused_CO_X_HAN_CARLSON/_188_
*842 _T_8\\ALU_32_0_32_0_32_unused_CO_X_HAN_CARLSON/_189_
*843 _T_8\\ALU_32_0_32_0_32_unused_CO_X_HAN_CARLSON/_190_
*844 _T_8\\ALU_32_0_32_0_32_unused_CO_X_HAN_CARLSON/_191_
*845 _T_8\\ALU_32_0_32_0_32_unused_CO_X_HAN_CARLSON/_192_
*846 _T_8\\ALU_32_0_32_0_32_unused_CO_X_HAN_CARLSON/_193_
*847 _T_8\\ALU_32_0_32_0_32_unused_CO_X_HAN_CARLSON/_194_
*848 _T_8\\ALU_32_0_32_0_32_unused_CO_X_HAN_CARLSON/_195_
*849 _T_8\\ALU_32_0_32_0_32_unused_CO_X_HAN_CARLSON/_196_
*850 _T_8\\ALU_32_0_32_0_32_unused_CO_X_HAN_CARLSON/_197_
*851 _T_8\\ALU_32_0_32_0_32_unused_CO_X_HAN_CARLSON/_198_
*852 _T_8\\ALU_32_0_32_0_32_unused_CO_X_HAN_CARLSON/_199_
*853 _T_8\\ALU_32_0_32_0_32_unused_CO_X_HAN_CARLSON/_200_
*854 _T_8\\ALU_32_0_32_0_32_unused_CO_X_HAN_CARLSON/_201_
*855 _T_8\\ALU_32_0_32_0_32_unused_CO_X_HAN_CARLSON/_202_
*856 _T_8\\ALU_32_0_32_0_32_unused_CO_X_HAN_CARLSON/_203_
*857 _T_8\\ALU_32_0_32_0_32_unused_CO_X_HAN_CARLSON/_204_
*858 _T_8\\ALU_32_0_32_0_32_unused_CO_X_HAN_CARLSON/_205_
*859 _T_8\\ALU_32_0_32_0_32_unused_CO_X_HAN_CARLSON/_206_
*860 _T_8\\ALU_32_0_32_0_32_unused_CO_X_HAN_CARLSON/_207_
*861 _T_8\\ALU_32_0_32_0_32_unused_CO_X_HAN_CARLSON/_208_
*862 _T_8\\ALU_32_0_32_0_32_unused_CO_X_HAN_CARLSON/_209_
*863 _T_8\\ALU_32_0_32_0_32_unused_CO_X_HAN_CARLSON/_210_
*864 _T_8\\ALU_32_0_32_0_32_unused_CO_X_HAN_CARLSON/_211_
*865 _T_8\\ALU_32_0_32_0_32_unused_CO_X_HAN_CARLSON/_212_
*866 _T_8\\ALU_32_0_32_0_32_unused_CO_X_HAN_CARLSON/_213_
*867 _T_8\\ALU_32_0_32_0_32_unused_CO_X_HAN_CARLSON/_214_
*868 _T_8\\ALU_32_0_32_0_32_unused_CO_X_HAN_CARLSON/_215_
*869 _T_8\\ALU_32_0_32_0_32_unused_CO_X_HAN_CARLSON/_216_
*870 _T_8\\ALU_32_0_32_0_32_unused_CO_X_HAN_CARLSON/_217_
*871 _T_8\\ALU_32_0_32_0_32_unused_CO_X_HAN_CARLSON/_218_
*872 net_1
*873 net_2
*874 net_4
*876 io_a[10]
*877 io_a[11]
*878 io_a[12]
*879 io_a[13]
*880 io_a[14]
*881 io_a[15]
*882 io_a[16]
*883 io_a[17]
*884 io_a[18]
*885 io_a[19]
*886 io_a[1]
*887 io_a[20]
*888 io_a[21]
*889 io_a[22]
*890 io_a[23]
*891 io_a[24]
*892 io_a[25]
*893 io_a[26]
*894 io_a[27]
*895 io_a[28]
*896 io_a[29]
*897 io_a[2]
*898 io_a[30]
*899 io_a[31]
*900 io_a[3]
*901 io_a[4]
*902 io_a[5]
*903 io_a[6]
*904 io_a[7]
*905 io_a[8]
*906 io_a[9]
*907 io_b[0]
*908 io_b[10]
*909 io_b[11]
*910 io_b[12]
*911 io_b[13]
*912 io_b[14]
*913 io_b[15]
*914 io_b[16]
*915 io_b[17]
*916 io_b[18]
*917 io_b[19]
*918 io_b[1]
*919 io_b[20]
*920 io_b[21]
*921 io_b[22]
*922 io_b[23]
*923 io_b[24]
*924 io_b[25]
*925 io_b[26]
*926 io_b[27]
*927 io_b[28]
*928 io_b[29]
*929 io_b[2]
*930 io_b[30]
*931 io_b[31]
*932 io_b[3]
*933 io_b[4]
*934 io_b[5]
*935 io_b[6]
*936 io_b[7]
*937 io_b[8]
*938 io_b[9]
*939 io_op[0]
*940 io_op[1]
*941 io_op[2]
*942 io_op[3]
*943 io_negative
*944 io_result[0]
*945 io_result[10]
*946 io_result[11]
*947 io_result[12]
*948 io_result[13]
*949 io_result[14]
*950 io_result[15]
*951 io_result[16]
*952 io_result[17]
*953 io_result[18]
*954 io_result[19]
*955 io_result[1]
*956 io_result[20]
*957 io_result[21]
*958 io_result[22]
*959 io_result[23]
*960 io_result[24]
*961 io_result[25]
*962 io_result[26]
*963 io_result[27]
*964 io_result[28]
*965 io_result[29]
*966 io_result[2]
*967 io_result[30]
*968 io_result[31]
*969 io_result[3]
*970 io_result[4]
*971 io_result[5]
*972 io_result[6]
*973 io_result[7]
*974 io_result[8]
*975 io_result[9]
*976 io_zero
*977 net130
*978 net128
*979 net129
*980 net121
*981 net122
*982 net123
*983 net124
*984 net126
*986 net127
*988 net120
*989 net125
*990 _265_/_219_
*991 _265_/_220_
*992 _265_/_221_
*993 _265_/_222_
*994 _265_/_223_
*995 _265_/_224_
*996 _265_/_225_
*997 _265_/_226_
*998 _265_/_227_
*999 _265_/_228_
*1000 _265_/_229_
*1001 _265_/_230_
*1002 _265_/_231_
*1003 _265_/_232_
*1004 _265_/_233_
*1005 _265_/_234_
*1006 _265_/_235_
*1007 _265_/_236_
*1008 _265_/_237_
*1009 _265_/_238_
*1010 _265_/_239_
*1011 _265_/_240_
*1012 _265_/_241_
*1013 _265_/_242_
*1014 _265_/_243_
*1015 _265_/_244_
*1016 _265_/_245_
*1017 _265_/_246_
*1018 _265_/_247_
*1019 _265_/_248_
*1020 _265_/_249_
*1021 _265_/_250_
*1022 _265_/_251_
*1023 _265_/_252_
*1024 _265_/_253_
*1025 _265_/_254_
*1026 _265_/_255_
*1027 _265_/_256_
*1028 _265_/_257_
*1029 _265_/_258_
*1030 _265_/_259_
*1031 _265_/_260_
*1032 _265_/_261_
*1033 _265_/_262_
*1034 _265_/_263_
*1035 _265_/_264_
*1036 _265_/_265_
*1037 _265_/_266_
*1038 _265_/_267_
*1039 _265_/_268_
*1040 _265_/_269_
*1041 _265_/_270_
*1042 _265_/_271_
*1043 _265_/_272_
*1044 _265_/_273_
*1045 _265_/_274_
*1046 _265_/_275_
*1047 _265_/_276_
*1048 _265_/_277_
*1049 _265_/_278_
*1050 _265_/_279_
*1051 _265_/_280_
*1052 _265_/_281_
*1053 _265_/_282_
*1054 _265_/_283_
*1055 _265_/_284_
*1056 _265_/_285_
*1057 _265_/_286_
*1058 _265_/_287_
*1059 _265_/_288_
*1060 _265_/_289_
*1061 _265_/_290_
*1062 _265_/_291_
*1063 _265_/_292_
*1064 _265_/_293_
*1065 _265_/_294_
*1066 _265_/_295_
*1067 _265_/_296_
*1068 _265_/_297_
*1069 _265_/_298_
*1070 _265_/_299_
*1071 _265_/_300_
*1072 _265_/_301_
*1073 _265_/_302_
*1074 _265_/_303_
*1075 _265_/_304_
*1076 _265_/_305_
*1077 _265_/_306_
*1078 _265_/_307_
*1079 _265_/_308_
*1080 _265_/_309_
*1081 _265_/_310_
*1082 _265_/_311_
*1083 _265_/_312_
*1084 _265_/_313_
*1085 _265_/_314_
*1086 _265_/_315_
*1087 _265_/_316_
*1088 _265_/_317_
*1089 _265_/_318_
*1090 _265_/_319_
*1091 _265_/_320_
*1092 _265_/_321_
*1093 _265_/_322_
*1094 _265_/_323_
*1095 _265_/_324_
*1096 _265_/_325_
*1097 _265_/_326_
*1098 _265_/_327_
*1099 _265_/_328_
*1100 _265_/_329_
*1101 _265_/_330_
*1102 _265_/_331_
*1103 _265_/_332_
*1104 _265_/_333_
*1105 _265_/_334_
*1106 _265_/_335_
*1107 _265_/_336_
*1108 _265_/_337_
*1109 _265_/_338_
*1110 _265_/_339_
*1111 _265_/_340_
*1112 _265_/_341_
*1113 _265_/_342_
*1114 _265_/_343_
*1115 _265_/_344_
*1116 _265_/_345_
*1117 _265_/_346_
*1118 _265_/_347_
*1119 _265_/_348_
*1120 _265_/_349_
*1121 _265_/_350_
*1122 _265_/_351_
*1123 _265_/_352_
*1124 _265_/_353_
*1125 _265_/_354_
*1126 _265_/_355_
*1127 _265_/_356_
*1128 _265_/_357_
*1129 _265_/_358_
*1130 _265_/_359_
*1131 _265_/_360_
*1132 _265_/_361_
*1133 _265_/_362_
*1134 _265_/_363_
*1135 _265_/_364_
*1136 _265_/_365_
*1137 _265_/_366_
*1138 _265_/_367_
*1139 _265_/_368_
*1140 _265_/_369_
*1141 _265_/_370_
*1142 _265_/_371_
*1143 _265_/_372_
*1144 _265_/_373_
*1145 _265_/_374_
*1146 _265_/_375_
*1147 _265_/_376_
*1148 _265_/_377_
*1149 _265_/_378_
*1150 _265_/_379_
*1151 _265_/_380_
*1152 _265_/_381_
*1153 _265_/_382_
*1154 _265_/_383_
*1155 _265_/_384_
*1156 _265_/_385_
*1157 _265_/_386_
*1158 _265_/_387_
*1159 _265_/_388_
*1160 _265_/_389_
*1161 _265_/_390_
*1162 _265_/_391_
*1163 _265_/_392_
*1164 _265_/_393_
*1165 _265_/_394_
*1166 _265_/_395_
*1167 _265_/_396_
*1168 _265_/_397_
*1169 _265_/_398_
*1170 _265_/_399_
*1171 _265_/_400_
*1172 _265_/_401_
*1173 _265_/_402_
*1174 _265_/_403_
*1175 _265_/_404_
*1176 _265_/_405_
*1177 _265_/_406_
*1178 _265_/_407_
*1179 _265_/_408_
*1180 _265_/_409_
*1181 _265_/_410_
*1182 _265_/_411_
*1183 _265_/_412_
*1184 _265_/_413_
*1185 _265_/_414_
*1186 _265_/_415_
*1187 _265_/_416_
*1188 _265_/_417_
*1189 _265_/_418_
*1190 _265_/_419_
*1191 _265_/_420_
*1192 _265_/_421_
*1193 _265_/_422_
*1194 _265_/_423_
*1195 _265_/_424_
*1196 _265_/_425_
*1197 _265_/_426_
*1198 _265_/_427_
*1199 _265_/_428_
*1200 _265_/_429_
*1201 _265_/_430_
*1202 _265_/_431_
*1203 _265_/_432_
*1204 _265_/_433_
*1205 _265_/_434_
*1206 _265_/_435_
*1207 _265_/_436_
*1208 _265_/_437_
*1209 _265_/_438_
*1210 _265_/_439_
*1211 _265_/_440_
*1212 _265_/_441_
*1213 _265_/_442_
*1214 _265_/_443_
*1215 _265_/_444_
*1216 _265_/_445_
*1217 _265_/_446_
*1218 _265_/_447_
*1219 _265_/_448_
*1220 _265_/_449_
*1221 _265_/_450_
*1222 _265_/_451_
*1223 _265_/_452_
*1224 _265_/_453_
*1225 _265_/_454_
*1226 _265_/_455_
*1227 _265_/_456_
*1228 _265_/_457_
*1229 _265_/_458_
*1230 _265_/_459_
*1231 _265_/_460_
*1232 _265_/_461_
*1233 _265_/_462_
*1234 _265_/_463_
*1235 _265_/_464_
*1236 _265_/_465_
*1237 _265_/_466_
*1238 _265_/_467_
*1239 _265_/_468_
*1240 _265_/_469_
*1241 _265_/_470_
*1242 TAP_TAPCELL_ROW_0_0
*1243 _265__3
*1244 input5
*1245 _269_
*1246 _270_
*1247 _271_
*1248 _272_
*1249 _273_
*1250 _274_
*1251 _275_
*1252 _276_
*1253 _277_
*1254 _278_
*1255 _279_
*1256 _280_
*1257 _281_
*1258 _282_
*1259 _283_
*1260 _284_
*1261 _285_
*1262 _286_
*1263 _287_
*1264 _288_
*1265 _289_
*1266 _290_
*1267 _291_
*1268 _292_
*1269 _293_
*1270 _294_
*1271 _295_
*1272 _296_
*1273 _297_
*1274 _298_
*1275 _299_
*1276 _300_
*1277 _301_
*1278 _302_
*1279 _303_
*1280 _304_
*1281 _305_
*1282 _306_
*1283 _307_
*1284 _308_
*1285 _309_
*1286 _310_
*1287 _311_
*1288 _312_
*1289 _313_
*1290 _314_
*1291 _315_
*1292 _316_
*1293 _317_
*1294 _318_
*1295 _319_
*1296 _320_
*1297 _321_
*1298 _322_
*1299 _323_
*1300 _324_
*1301 _325_
*1302 _326_
*1303 _327_
*1304 _328_
*1305 _329_
*1306 _330_
*1307 _331_
*1308 _332_
*1309 _333_
*1310 _334_
*1311 _335_
*1312 _336_
*1313 _337_
*1314 _338_
*1315 _339_
*1316 _340_
*1317 _341_
*1318 _342_
*1319 _343_
*1320 _344_
*1321 _345_
*1322 _346_
*1323 _347_
*1324 _348_
*1325 _349_
*1326 _350_
*1327 _351_
*1328 _352_
*1329 _353_
*1330 _354_
*1331 _355_
*1332 _356_
*1333 _357_
*1334 _358_
*1335 _359_
*1336 _360_
*1337 _361_
*1338 _362_
*1339 _363_
*1340 _364_
*1341 _365_
*1342 _366_
*1343 _367_
*1344 _368_
*1345 _369_
*1346 _370_
*1347 _371_
*1348 _372_
*1349 _373_
*1350 _374_
*1351 _375_
*1352 _376_
*1353 _377_
*1354 _378_
*1355 _379_
*1356 _380_
*1357 _381_
*1358 _382_
*1359 _383_
*1360 _384_
*1361 _385_
*1362 _386_
*1363 _387_
*1364 _388_
*1365 _389_
*1366 _390_
*1367 _391_
*1368 _392_
*1369 _393_
*1370 _394_
*1371 _395_
*1372 _396_
*1373 _397_
*1374 _398_
*1375 _399_
*1376 _400_
*1377 _401_
*1378 _402_
*1379 _403_
*1380 _404_
*1381 _405_
*1382 _406_
*1383 _407_
*1384 _408_
*1385 _409_
*1386 _410_
*1387 _411_
*1388 _412_
*1389 _413_
*1390 _414_
*1391 _415_
*1392 _416_
*1393 _417_
*1394 _418_
*1395 _419_
*1396 _420_
*1397 _421_
*1398 _422_
*1399 _423_
*1400 _424_
*1401 _425_
*1402 _426_
*1403 _427_
*1404 _428_
*1405 _429_
*1406 _430_
*1407 _431_
*1408 _432_
*1409 _433_